600
counterions
C        1.78818        1.93715        1.18219        2.88924
C       -1.37391        2.26847       0.146601        2.65614
C       -2.46987      -0.182357      -0.802498        2.60336
C       0.595667        2.96825        1.23382        3.26919
C        1.59392       -2.98404        1.48498        3.69462
C      -0.507902       -2.67733      -0.742298        2.82437
C        1.39317       -2.45423      -0.441015        2.85633
C       -3.38824       -1.40626      0.0460625        3.66877
C       -2.36674      0.0822128         1.7944        2.97121
C       -0.99868       -2.52772      -0.297292        2.73407
C      -0.159948        -3.0546       -1.20183        3.28642
C       -3.01655      -0.472902      -0.188739        3.05922
C       -3.38204       0.842593       0.502085         3.5214
C    -0.00824195        1.66782       -2.64888        3.13022
C        1.22536        1.38007       -2.30272        2.95103
C       -2.75076      -0.115939      -0.934101        2.90734
C       -1.79806       -2.29831       -0.40493        2.94605
C        2.44367       -1.61106        0.82126        3.03999
C       -2.82565      -0.155011        2.07081        3.50664
C       -1.23293       -2.21578       -1.17118        2.79311
C       0.848244          3.471     -0.0216243        3.57321
C       0.595876        1.36228        3.38272        3.69508
C      -0.939108      -0.445725       -2.84751        3.03132
C       -2.72977       -1.82757      -0.749357        3.36945
C      -0.974485        1.68689        -1.6556        2.55661
C        1.44252     0.00264321       -2.84372        3.18867
C       -2.59856        1.35218        1.64445        3.35933
C        1.27414       0.582652        3.37614         3.6553
C       -3.18291        1.03039      -0.836456        3.44852
C        1.94399      -0.463876       -2.30286        3.04917
C       0.574662       -2.73728       -1.35761        3.10903
C       -3.17717       0.837898       0.109911        3.28764
C       0.929018       -2.75251        1.08214        3.10006
C        -2.7264        1.13964        -1.7497        3.43416
C      -0.769496        2.86139        2.02316        3.58788
C        1.47891       -1.74388        1.76394        2.88787
C       -2.58982      -0.736448       0.235584        2.70278
C       0.560331        2.47683       -2.20107        3.36056
C        2.33673        2.28994      -0.137666        3.27462
C        1.48492      -0.552541        2.42376        2.89567
C         3.3208       0.408688        1.56865        3.69533
C      -0.906483        1.10545       -3.38574        3.67518
C        3.03235       0.402716        1.93336        3.61873
C      -0.129316       -3.22455       -1.63083         3.6158
C        3.22568      0.0545347        0.48069        3.26176
C        2.24098        1.08718       -1.42174        2.86797
C        1.27428       0.784611       -2.62115        3.01825
C        2.20027        1.23168        2.64033        3.65097
C        2.62388        2.05202        1.37788        3.60473
C        1.22921      -0.300476        2.89014        3.15502
C        1.07133       0.532033        2.25288        2.55074
C       -1.73535        1.22513         1.9887        2.90987
C        1.23683      0.0294742        2.49763        2.78725
C      -0.999984         1.1648        3.10786        3.46634
C      -0.981107       -1.95105        -1.4884        2.64282
C      -0.774212        2.36335       -1.12547        2.72975
C       -1.74237      -0.987402        1.88031        2.74707
C        2.68867      -0.329169       -1.24906        2.98286
C        2.92854     -0.0741833       -1.81477        3.44605
C       -1.28306       -1.58954       -2.66405        3.35709
C        2.76787      -0.811181        2.15116        3.59814
C       -2.90738       -1.08591       0.415406        3.13124
C        1.82097        1.99448       -1.89701        3.30039
C        1.25204        2.88392      -0.992261        3.29685
C       -2.03461      -0.118691       -2.49913        3.22481
C        2.81308      -0.331611     -0.0201024        2.83263
C      -0.773656        2.87748        1.75924        3.46026
C        1.04099     -0.0496687       -3.17874        3.34522
C       -1.82175       0.373341        2.76088        3.32875
C      -0.176216       0.337788        2.82422         2.8498
C       -3.03802       -1.48002        1.02172        3.53043
C       -1.55092       -2.41984       -1.39444        3.19459
C       -2.64975      -0.298531       0.804077        2.78511
C       -2.35398       -1.17145        0.79316        2.74638
C       -1.43536       -2.79244       -1.71106        3.57571
C      -0.685635        2.84584        1.10256        3.12802
C        -1.1202        -3.2266        1.05968        3.57614
C       -1.38697       0.288686       -2.99137        3.30988
C     -0.0116749       -3.33639       0.458694         3.3678
C        3.43071       0.892903       0.213344        3.55142
C        1.47729       -2.33878       0.402405        2.79539
C       -2.33384       0.599997        2.61591        3.55665
C        1.32925       -2.15427      -0.756471        2.64198
C       -1.10267       -1.64214       -1.96704        2.78958
C       0.893749        -2.7913      -0.351819        2.95194
C       -1.78636          2.078        1.25079        3.01225
C        2.30037       -2.01967      -0.369048        3.08333
C        2.78888       -2.21499       0.176701        3.56584
C       -2.78326       0.591727       -1.77448        3.35343
C       -2.17776       0.393761        2.61867        3.42858
C       -3.21618       0.914485       -1.38251        3.61821
C        2.41145        1.90462        1.51352        3.42541
C       -1.01131        2.38312        1.87484        3.19641
C       -3.36266       0.212902       0.870031        3.47991
C       -1.70698        2.24193       -1.97354        3.44019
C       -0.30761        2.99801       0.356997        3.03482
C       -3.30886       0.679491       0.476507        3.41136
C      -0.755898       -1.62253        2.28571        2.90318
C      -0.338732      -0.585146       -3.43359        3.49953
C       -1.43634       -1.23944        2.66764        3.27346
C       0.170817        0.86073        3.58867         3.6944
C        2.21692       -2.24453      -0.322649        3.17124
C       0.528889       -2.12456        1.38934        2.59302
C        -1.6499       -2.38664      -0.763866        3.00029
C      -0.144644        1.01628       -2.37346        2.58594
C       0.792888        1.93429        2.16835        3.01196
C       0.970727       -2.27853       -2.13817        3.27197
C       -2.74474       0.646551        1.74087        3.31394
C        1.78571       0.075061       -3.07558        3.55719
C       0.243078        1.85788        2.69223        3.28008
C        2.37639        1.61172      -0.683934        2.95172
C        -1.0923       0.730681       -2.99961        3.27485
C       -2.47894       -1.55708      -0.901527        3.06306
C      -0.983667       -2.88774       -1.92219        3.60575
C       -2.41765      -0.498968       -1.56711        2.92401
C        1.64912        -1.3602        1.72478        2.74675
C        1.97378      -0.354247         2.1732        2.95704
C        3.24917      -0.439884       0.120012        3.28101
C       -2.67791        1.37925        1.11502        3.21198
C    -0.00649164      -0.999054        3.13264        3.28809
C       -2.17977       0.939366       -1.11083        2.62064
C     -0.0624229        1.79019       -3.16202        3.63415
C       -3.04309       -1.10395        1.77783         3.6932
C      0.0952905        1.63562        2.41787        2.92069
C      -0.568838        3.00756       0.963187        3.20885
C       0.467371        3.01839        2.05382        3.68066
C       -2.12803        0.32516        1.38811        2.56146
C       0.707139      -0.282735        2.59567        2.70509
C       -2.91266      -0.424823        2.08993        3.60997
C         3.1615       -1.01287      -0.398037        3.34356
C        2.04769      -0.157346       -2.88871        3.54435
C       -2.67663       0.260705       0.522343        2.73955
C      -0.385587       -3.15783      -0.123805        3.18369
C        2.16652       -1.99155        2.08457        3.60631
C       -1.11727       -2.45846        1.93109        3.31985
C       -1.31662        2.21901        2.06306        3.30359
C        0.79704       -2.76233      -0.465965        2.91253
C       0.343378       -2.69426         2.2203        3.50808
C       0.346254        2.39975      -0.781969        2.54758
C       -1.94342        1.99431       0.256278         2.7964
C       -0.18019        0.55107          3.271        3.32199
C        -1.9829        1.74851        1.36178        2.97382
C       -3.24823      -0.429316       0.125599        3.27889
C     -0.0475885      -0.103249        3.31307        3.31502
C      0.0907893       -3.05118      -0.235985        3.06164
C        2.19097        -2.2958       -1.91646        3.70727
C        2.20903   -0.000578486        2.91296        3.65584
C        2.76915        0.90597        1.16549        3.13805
C      0.0174446        3.47173       -1.22904         3.6829
C        2.10346        1.16663       -1.71519        2.95423
C     -0.0833555        1.60884        2.95387        3.36462
C      -0.922858       0.872588       -2.75233        3.03124
C        1.45898       -2.98724       0.473926         3.3581
C       -1.68556       -1.99115       -0.77531        2.72156
C       0.602824       0.912744        -3.4366        3.60648
C        2.61468         -1.363       -2.16787        3.65978
C      -0.745425       0.344477       -2.91605        3.02947
C        -1.0006        -3.2511       0.350797        3.41963
C       0.785845       0.150832       -2.67268         2.7899
C        -1.0987       0.746986        3.41962        3.66864
C       -1.87362       0.271691       -2.96732        3.51984
C       -1.14288       -2.31986       -2.23625        3.41888
C      -0.139009      -0.769479        3.37528        3.46467
C      -0.760614    -0.00218292        2.87956        2.97832
C         1.0339       -1.24172       -2.61594        3.07473
C        1.95458      -0.998487       -1.58048        2.70468
C       -1.09339        0.55324       -3.03505        3.27309
C       -1.72511       -1.95859      -0.332311        2.63106
C       -3.07175         1.3928       -1.21372         3.5845
C       -2.55438        2.46093      -0.975618        3.67871
C      -0.700652        2.80052        1.00973        3.05833
C       -3.31636       0.852722        0.70121         3.4953
C       -1.09916       -2.45963       -1.45701        3.06281
C       -1.95591         1.0093       -1.49615        2.66134
C       -2.89061      -0.557171        1.60238        3.35167
C        -2.1503        0.27093       -1.53713        2.65706
C        2.55573       -2.11245       0.719288        3.39288
C        2.00297        2.69652       0.151869        3.36246
C       -1.95056      -0.917719        1.45798        2.60242
C        -2.5167        2.05761        0.65471        3.31605
C       -1.15295      -0.864851       -3.20256        3.51193
C        0.80871        2.41164        1.35006         2.8797
C       -1.91204        1.47987       -1.76544        2.99377
C       -2.66161      -0.242846       0.960208        2.83992
C        1.54276       -2.77428      -0.377885         3.1968
C       -1.71784        1.53677        1.38206        2.68751
C       -1.87793       -2.76232       0.640301        3.40103
C        1.70719       0.958499       -2.11047        2.87877
C        2.72096      -0.572594        1.05237        2.97304
C       -1.52754       0.395092        2.39914        2.87147
C      0.0931571       0.475779       -2.75447        2.79681
C        -1.6583        2.22866      -0.422716        2.80991
C       -1.65769      -0.881628         2.5016        3.12782
C        1.92047      -0.789988        1.99264        2.87801
C        2.40399       0.340604       -1.78034        3.01078
C        2.93655      -0.259541        2.00406        3.56468
C        1.03094       -2.03488       -2.42841        3.33178
C       -2.28344      -0.769832        1.44653        2.81055
C       0.746586        2.45586        -2.1918         3.3753
C        2.59243       -1.62168        1.88941        3.59449
C       -3.00616        1.43316      -0.502004        3.36793
C       -2.10554        1.01671       -2.45649        3.39136
C        1.61417       -1.11487       -2.76551        3.39065
C        3.24945      -0.914461       0.297054        3.38872
C      -0.203429       -2.48017       0.937809        2.65935
C       0.670322       -1.78693        2.66348        3.27667
C        2.53199        1.37503      -0.341516        2.90144
C      -0.980375      -0.588338        3.22344        3.42021
C        3.35576       0.298836      -0.191628        3.37449
C        2.29846        -1.1978      -0.337644        2.61374
C        2.28919       -0.45216       -1.22655        2.63615
C       -2.39619        2.35311       0.243077        3.36718
C       -2.70619        2.01392       -1.18829         3.5765
C       -2.65069        -2.4289       0.873141        3.69974
C        3.51391       0.243219       0.249117        3.53112
C       0.949312        1.55964       -2.44128        3.04853
C        1.08998      -0.151083       -2.30854        2.55739
C         2.3983        1.53305       -1.50918        3.22175
C       0.841797        1.35421        2.82616        3.24495
C       -0.65684        2.00651        -2.8818        3.57244
C       0.230622        -2.1362       -2.32562        3.16624
C       -1.08921        1.01728        2.74202        3.12088
C       -1.22967       -1.28386         2.1249        2.77048
C       0.359349       -3.35985      -0.612689        3.43411
C       0.471466        1.86506        2.65336        3.27736
C       -1.79625        2.59805        0.49358        3.19687
C       -2.19019     -0.0739455       -2.64261        3.43305
C         -2.419      -0.360856       -2.65496        3.60979
C      -0.832415        2.73288       0.606831        2.92058
C        2.99772       0.965001      -0.455337        3.18196
C      -0.472636       -1.06147        2.80151        3.03291
C        1.26276        1.24483        3.22101        3.67682
C       0.681106       -2.81448       0.681496        2.97484
C     -0.0599295       -3.24624        1.19669        3.46031
C      -0.775622       0.558233        2.43541        2.61619
C      -0.903345       -1.86393        2.66105        3.37215
C       -1.23483       -1.67721        2.43529        3.20444
C        1.07939        2.27852        2.26064        3.38633
C       -2.75993    6.58818e-05        1.61304        3.19674
C      -0.130619       0.734806        3.18369           3.27
C       -2.64622      -0.528324       -1.15437        2.93499
C     -0.0368275       -2.51387       -1.62132        2.99158
C        2.97779       0.542235       -1.93479         3.5923
C        1.07319        2.56313       0.450389          2.815
C        1.73159      -0.786446        3.05179        3.59588
C        0.44288       0.974042       -3.06324        3.24474
C        3.15689        0.75372       -1.15713        3.44572
C       0.514586        2.92834       -1.86786        3.51124
C       -1.12859       -1.77672       -1.86787        2.81414
C        2.44751        1.62077      -0.818752        3.04755
C       -1.34565        1.27503        2.30857        2.96074
C        -1.3737        1.93264       -2.76592        3.64313
C       -1.42607       0.355059       -2.35346        2.77462
C      -0.333425        2.17762        2.36593        3.23278
C        2.53818      -0.322804       -2.14069        3.33603
C        -2.2927       -1.34262         2.0216        3.33856
C       -2.74774       -1.86783      -0.154036        3.32605
C       -1.14326       -1.75956       -2.40185        3.18935
C       -2.04336        0.20082         2.3121        3.09216
C        2.90369       -1.96128       0.736656         3.5806
C      0.0731601       -1.17638        3.03316        3.25411
C        2.87462      -0.168375        2.13469        3.58451
C       -2.02911      -0.670486       -1.88143        2.84722
C       -1.11368      -0.938762       -2.27954        2.70516
C       -2.53676       -1.54324       -1.52749        3.33915
C        1.05996       0.759224        2.77417        3.06529
C         2.6694       -1.80576       0.402558        3.24785
C      -0.595603       -1.49176       -1.99941        2.56471
C         2.4226        1.68844          2.232        3.70157
C       -1.50807       0.410619        2.03243        2.56391
C      -0.719884       -1.59873        2.32298        2.91039
C      -0.866525        1.46726       -3.26908        3.68655
C       -2.09313       0.971539       -2.27734        3.24212
C        1.91312       -2.02739        2.32679        3.63102
C        -2.6797         1.9557       0.781647         3.4083
C       -1.13406        2.05541       -1.69213        2.89381
C       0.888558       0.429753       -3.22326          3.371
C       0.779222       -2.29004        2.27462        3.32045
C       -2.66472        1.28226     -0.0840531        2.95837
C        2.48713        1.10067        0.29297        2.73553
C        3.36331       -1.35959      -0.775291        3.70964
C        3.02354        -1.0897       0.820292        3.31694
C        2.64889       -1.49736       -1.81962        3.54538
C       -2.35761       -1.15165        -1.5478        3.04636
C        3.00595       0.527366      -0.666966        3.12389
C        2.52455         1.3995        1.53096        3.26738
C        1.48863        1.81937       -2.49729        3.42967
C       -0.84005        2.09989        -2.1553        3.12419
C       -1.31916       0.479952       -2.90633        3.22758
C       -1.01214        3.32652        1.13415        3.65738
C       -1.33853      0.0318672        3.35621        3.61342
C       -2.26749       -1.73391      -0.690683        2.93683
C       0.402414        1.80309        2.60894        3.19682
C        2.46028        1.80077       -1.78217        3.53156
C       -2.39105      -0.464181      -0.737922        2.54502
C        -0.7538      -0.840504        3.09102        3.29076
C       -1.16112       -2.51616       -1.86639        3.34106
C      -0.248339        3.32011      -0.252337        3.33894
C        1.80052       -1.35495       -2.66002        3.48618
C        1.66424      -0.127896       -2.30517        2.84602
C      -0.669631       -0.76699         -2.984        3.15293
C       -2.24843       0.295756       -1.75378        2.86682
C       0.312936       -3.60064        0.74446        3.69009
C        2.62882      -0.429733      -0.441074        2.69998
C        1.91425      -0.517536       -2.30303         3.0391
C       -2.31195       0.618265         1.0829        2.62679
C       -1.65891        2.31883       0.304247        2.86731
C        2.27685       -2.75278      -0.197564        3.57783
C        1.72679        2.24186         1.5018        3.20361
C        2.27733      -0.167201       -1.39758         2.6772
C       -1.65799       -1.99313        2.20722        3.40489
C        2.90225       0.275039       0.084812        2.91648
C        3.14184      -0.175562       0.312171        3.16219
C        1.67344      -0.224959       -3.05682        3.49216
C         2.5649      -0.763438         -0.631         2.7495
C        2.20359        1.82761       -2.21316        3.61857
C        2.21149      -0.746945        1.47897        2.76333
C        1.62397        3.23507      -0.487953        3.65254
C      -0.749463        1.60083        2.87501        3.37492
C        2.82982        2.00779      -0.583104        3.51839
C       -1.54919      -0.779831        2.80478        3.29772
C       0.848212       0.781262        -2.6583        2.89766
C       -0.31824       -2.27301       -2.13694        3.13598
C       -2.29322        0.70629       0.908113        2.56561
C       0.841087       -2.36703        1.11821        2.74967
C       -2.03613        1.35541        1.86889        3.07826
C       -1.42918       -1.80576        2.02531        3.06679
C       -1.06639        3.28609     -0.0610477        3.45533
C       -2.10718      -0.427196        2.63138        3.39807
C        1.26499        1.80586       -2.68276        3.47254
C        2.76734        -1.0117      0.0484554        2.94687
C       -3.36045        1.18894       -0.59863        3.61449
C       -1.79453        1.03633       -1.94413        2.84147
C       -2.09048       -2.82676       0.820723        3.61029
C      -0.624317        2.28321        1.33233        2.71623
C       -3.11113        1.11703      -0.273763        3.31691
C         2.3159     -0.0860246        2.59262        3.47742
C       -2.34878       0.726792        1.11985        2.70168
C       -1.34602       -2.49909      -0.847709         2.9624
C        3.16531      -0.605266       0.582708        3.27491
C      -0.495503       0.431607        -2.6626        2.74249
C        -1.8239       -2.88912        1.30352        3.65688
C       -1.72379       0.642213       -3.06877        3.57788
C       -2.45039       -1.37327       0.229046        2.81828
C       -3.29635       -0.68395        1.38522         3.6404
C         2.5441     -0.0441063        1.61861        3.01567
C       -1.84298         2.5262      -0.778971        3.22258
C        1.50192      -0.100737       -3.12089        3.46495
C       0.425067         2.2004        2.71076        3.51719
C        1.69614        2.06851        2.33423        3.55024
C        1.69404       -2.38701      -0.121968        2.92958
C      -0.901182         1.9869       -2.80389        3.55271
C         -1.164       0.792505        3.29332        3.58175
C       -2.78156       -2.37741       0.247869         3.6675
C       -2.80006       0.901648         1.8454        3.47258
C       -1.88845        2.20887      -0.890291         3.0394
C        2.58224       -1.48973       0.236346        2.99051
C       -0.88301      -0.371908       -2.92472        3.07767
C         3.2686       0.448939       -1.07663        3.47051
C        1.76644     -0.0947444        2.27005        2.87792
C        2.63713        1.48142        1.67395        3.45705
C        1.54239        2.33086      -0.784603        2.90301
C         2.7894       0.390059       0.775669        2.92139
C       0.388594       -3.22005      0.0171347        3.24346
C        2.19846        2.35681      -0.607506        3.27976
C       -2.64971       -0.34571       -1.62787        3.12897
C       0.907262       0.717194        3.35567        3.54937
C       -1.24401        -2.7029       0.451474         3.0095
C        3.00857      -0.141684      0.0161828        3.01195
C        1.78103        2.00966       -2.19887        3.47071
C       -1.06188        -2.7655        0.92378        3.10306
C       0.487773        3.56566    -0.00384693        3.59887
C       -3.31695        0.43709       -1.22332        3.56226
C        1.72656       -1.51912       -2.19523        3.17928
C       -3.42108     -0.0554366        1.27717        3.65213
C        2.85064        1.93973      -0.748709        3.52835
C       -1.97706       -1.51066       -1.77622        3.05709
C        1.34777        2.58205        1.56319         3.3056
C        1.89752       -1.19746       -1.86175        2.91558
C        1.59806       -2.88798      -0.602226        3.35513
C        2.48482        1.36577       0.715251        2.92425
C      -0.219751       -2.90896      -0.418402         2.9471
C       -1.57544      -0.670982        2.80873        3.28955
C      -0.170005       -2.32671        2.60439        3.49647
C       -1.03892        2.18064        1.80817        3.01728
C        1.34423      -0.499113        2.61596        2.98317
C       -1.22475       0.147979        3.40332        3.62001
C       -1.08052        2.67404       0.740919        2.97774
C       -2.20772        1.88797       0.882982        3.03614
C       -2.95657        1.78626        1.01909        3.60147
C      -0.812177       -1.78532        3.04313        3.62045
C        2.08148       -1.40131        1.88437        3.13801
C        1.92849      -0.202739       -2.96941        3.54649
C       -2.54949       0.992331     -0.0741869        2.73681
C       -1.46024       -3.16135      -0.741575        3.56038
C       -2.71433       0.889957       -2.35246         3.7005
C      -0.260309        2.34091        1.39819        2.73907
C       0.214278        3.33541     -0.0526488         3.3427
C       -2.77225       -1.72235      -0.785727        3.35696
C        -1.0591       0.572934       -2.87409        3.11614
C        2.22215        2.56355      -0.375864        3.41336
C         1.8847       -2.12395       -2.19177        3.58708
C      -0.703227       -1.59444        3.04743         3.5105
C       -1.76095   -0.000818968       -2.65244        3.18377
C        -2.1264       -1.17412        1.61156        2.91501
C       0.872304       0.511908       -2.87604         3.0487
C        2.04913       -2.21117       -1.31923        3.29068
C       -2.93996       -1.08156        1.25162        3.37338
C        1.12632       -2.79226        -0.9136        3.14642
C        3.14598        0.39989       0.682174        3.24383
C         2.1035        2.62722       -1.32483        3.61693
C       0.439678       0.175774          3.149         3.1844
C        2.74778        0.11622       0.687912        2.83496
C       -1.48643       -2.09553        2.51538        3.59554
C       0.580463       -2.46615      -0.699401        2.62831
C       0.777191       0.344862         3.0063        3.12423
C        1.37321         1.6185       -2.97012         3.6506
C      -0.823656        2.44178        1.38857        2.92726
C        3.20474       0.546015       -1.18992        3.46185
C        1.57761       -1.15321        2.82609        3.43592
C       0.138648       -1.70152       -3.10016        3.53912
C       -1.87441        -1.5339        1.46206        2.82911
C       0.744623        1.78772        -2.8033        3.40718
C       -1.51493        -2.3243       -0.81361        2.89125
C        0.67187        2.01408       -2.43289        3.22906
C       -1.35961       -2.29886       0.364669         2.6956
C       0.623904       -0.97942        2.74045        2.97634
C       0.488704        2.06009       -1.66753        2.69508
C       -2.36772       -1.71084      -0.829561        3.03665
C       -2.63245        1.01101       -1.23349         3.0779
C       -0.76081       -1.07777         2.2629        2.61938
C         2.5923      -0.618757      0.0453548        2.66551
C       -1.26908       -1.27359       -2.66083        3.21132
C      0.0506716       0.615913        -2.6792        2.74955
C       -1.38471       -2.14104      -0.118679        2.55256
C       -0.53193       -1.68236       -2.70694        3.23122
C      -0.130566       -2.53529        2.37995        3.47978
C      -0.484382        3.08791      -0.828726        3.23366
C       0.554057        1.27286        2.73124         3.0638
C        2.11225      -0.261329       -1.65709        2.69738
C      -0.201734        3.56631       0.391048        3.59335
C        1.12331       0.391499          2.866        3.10307
C       -2.05486        2.37504      -0.636844         3.2045
C        1.62186        3.01319       -0.56733        3.46866
C        3.11876       -1.14847        1.26038        3.55446
C      -0.469542      -0.025216       -2.76067        2.80043
C        2.58613       0.730828       0.867316         2.8239
C      -0.565159        2.46839       -2.46588        3.53453
C        2.15984       0.932659        1.56193         2.8239
C        2.89426       -0.73143        1.85278        3.51348
C       -3.33279      -0.159509       0.521235        3.37707
C       0.323691       -3.41307        1.16202        3.61996
C       -2.12372       -2.97597      -0.526994        3.69382
C       -3.62455       0.387622       0.243574        3.65334
C       -2.23679       -1.20699       -1.65525        3.03314
C      -0.733228        2.53747        2.55712         3.6763
C        2.05893       0.683428       -2.78853        3.53301
C         1.4537        2.62544      -0.339794        3.02021
C      0.0993661        -1.7162       -3.17951        3.61448
C       -2.46142        1.86863        1.68741        3.52104
C        1.48131       -1.60571        1.62497         2.7227
C       -1.43574        2.35644       0.317426        2.77758
C       -3.05775      -0.158024     -0.0954268        3.06331
C        2.72471      -0.308277         1.8131        3.28731
C      -0.292749         3.1606        -1.5257        3.52177
C       0.386319        3.09042      -0.285388        3.12752
C        2.68795        2.04541      -0.381935        3.39922
C      -0.265639        2.58706        1.31432        2.91391
C       -1.80174       -1.82246       -2.46851        3.55825
C      -0.369612           3.07        1.60779        3.48518
C       -3.35227       0.356278        1.37372         3.6403
C         3.1735        1.03071       0.495456        3.37327
C       0.568092        3.42891      -0.864596        3.58157
C       -2.61736      -0.673367       -1.86401        3.28307
C       -2.46767        1.61562       -1.06406        3.13557
C       0.688143        2.10155        2.96035         3.6951
C       0.564175        2.98656       -0.92187        3.17611
C        1.46702        2.07953          1.275        2.84644
C      -0.251689      -0.383585       -2.94029        2.97587
C       -2.18033        2.08449        1.13819        3.22404
C       0.999001        2.17584        1.40417        2.77561
C       -1.47088       -1.77433        1.34479        2.66837
C       -1.76064        -1.5633        2.80588        3.66289
C       -2.02796        1.23571         1.3328        2.72323
C        1.33342      -0.838516        3.30446        3.66067
C       -2.39135        1.61559      -0.800154        2.99482
C        -0.7523        1.89076       -1.86041        2.75718
C        2.70026       -1.15145      -0.160186        2.93988
C       0.677262       0.242312        2.81123        2.90179
C       0.167827      -0.706301        2.73003        2.82491
C        1.89273        2.15147        1.60854        3.28613
C       -1.03501       -1.69568        2.45301        3.15656
C        2.66088      -0.872855       -1.78969        3.32342
C      -0.102649       -3.59442       0.835486        3.69167
C      -0.762888        3.35666      -0.906367        3.55959
C       -1.91375       -2.53112        1.51095        3.51454
C      -0.900273       -3.12131        1.01957        3.40479
C        1.23253        2.11478       -1.65155         2.9528
C        2.01252       -2.38854       0.834281        3.23286
C       -2.99496      0.0154987        1.69005        3.43894
C        2.73539       -2.33729      -0.217665        3.60453
C       -2.30229      0.0411316       -2.41315        3.33549
C        2.65469      -0.339249        2.53502         3.6863
C       0.736152        2.27893       -1.98987        3.11369
C       -2.87662       0.324537       -0.40504        2.92307
C      -0.705445        3.01528       0.132725        3.09955
C        1.84766      -0.215341       -2.53453        3.14389
C        2.52046       -1.93182       0.535169        3.22041
C       -2.01661       -3.00408      -0.169073        3.62212
C       -2.60095       0.712166        1.96249        3.33519
C        1.71812         -1.387       -1.99817        2.97798
C        2.15452       -1.87306       0.940611        3.00584
C       0.422609       -2.65429       -1.04837        2.88494
C         3.0599       0.571087       0.907029         3.2422
C       -2.38643        2.72716      -0.398614        3.64573
C      -0.511166      -0.583395        3.58951        3.67236
C      -0.536298       0.529701        3.46094        3.54208
C      -0.721464        2.93304       0.206119        3.02749
C      -0.175747        3.67039      -0.422313        3.69879
C        1.13068       -1.92873       -1.24607        2.55951
C         1.7104       -1.32369        2.57601        3.36354
C     -0.0686222        2.81588       -1.93059        3.41483
C      -0.926429        1.03281       -2.93156        3.24331
C        1.44444        2.74103      -0.237842        3.10744
C       -2.87462       0.686209        1.22413        3.19888
C       -1.42274        2.21222        -2.4783        3.61387
C        1.80876       -3.01124       -0.23105        3.52031
C        2.69588       -2.32433       0.427209        3.58508
C      -0.887142        -2.6663       -1.90556        3.39519
C        2.06071        2.73985      -0.666285        3.49245
C       -3.60259       0.368484      -0.462094        3.65075
C       -1.47329       0.366451       -2.70064        3.09811
C        2.93997        1.15931        1.25646         3.4009
C        -2.4778       0.962395        2.19082        3.44462
C       0.497502         2.9987      -0.150714        3.04342
C       -1.34773      -0.098126       -2.98736        3.27877
C       -1.35194       0.143721        3.11373        3.39761
C       0.620965        1.34533       -2.98835        3.33553
C       -1.69639        1.77788       -2.34572        3.39721
C       -1.95504       -1.11954       -1.92524        2.96346
C       -1.31784        1.76048       -2.16633         3.0869
C        -2.2597       -2.25118        1.42062        3.49173
C        -1.3201        1.46014       -2.48054        3.16666
C        1.75399       -1.51002        -2.2655        3.23869
C        2.28844        1.66362        -1.6371        3.26874
C        -2.2531      -0.273877       -2.77845        3.58765
C       -1.01875        2.65479      -0.504015        2.88787
C        3.38856      -0.575265       -1.31188         3.6789
C      -0.417822       0.587475       -3.39565        3.47133
C       0.405279       -3.39738       0.343888        3.43871
C       -2.81427      -0.533729      -0.386471        2.89038
C       0.475904        2.79178       -2.14264        3.55126
C       -1.10136       -3.30153       0.899247        3.59468
C        2.07354        2.74817       -1.12229        3.62099
C        -1.8779      -0.850876       -2.66169        3.36676
C        1.61031        -1.2259        2.71738        3.38822
C      -0.546602       0.616373       -3.18926        3.29395
C       -1.35202       -2.41713         1.0699        2.96904
C        2.87876        -1.6382       -1.60784        3.68186
C        1.81853       -1.20417       -2.21683        3.10988
C       -1.46303        -1.5644        2.45752        3.25994
C        -2.0004        2.15481       -1.38974        3.25211
C      -0.688044       -3.10184       -1.78411        3.64388
C       -2.82592     -0.0014905       0.530102        2.87521
C        1.73289        0.42945        2.07147        2.73465
C       0.641265       -1.45787       -2.64164        3.08462
C       -3.00892       0.654916      -0.745603        3.16835
C       -1.62038       0.760719       -2.15195        2.79915
C        2.99999       -1.38608       -1.29833        3.55061
C       -3.34017       -1.23794       0.179657        3.56672
C      -0.100905       -3.37609       -0.62913         3.4357
C        1.51965       -1.84533       -1.09512        2.62942
C       -2.98597        -1.4135       0.391579        3.32676
C       -2.60155       -1.25286        1.30555        3.16894
C        1.22157        2.26275       -1.60457        3.03099
C        1.21305       -3.30743       0.349146        3.54012
C       0.532824       0.201984        3.28565         3.3347
C        3.22834      -0.554125      -0.503168        3.31397
C       -1.07538       -1.47856         2.0575        2.75243
C       0.393449       -2.99089       -1.88151        3.55532
C       0.644212         1.3163        2.73213        3.10035
C        2.96966      -0.631918      -0.548788        3.08535
C       -2.19271       -1.62106      0.0818722         2.7281
C         1.2615       -3.10131     -0.0932328        3.34936
C       0.767933        3.17409       -1.36504        3.53948
C       0.502406        1.00337        2.67993        2.90537
C       -1.18692        2.74176       0.902872        3.12109
C       -2.09411       -2.43997        1.49814        3.54728
C         0.4805       0.896268        -3.1957         3.3536
C        -2.2843        -1.0606        1.13694        2.76325
C       -1.43808       -2.39267        2.16472        3.53256
C        1.30836       -1.59866        1.91995        2.82024
C       -1.45499        1.56769        2.05396        2.96536
C        2.49396      -0.731132       -1.15109        2.84243
C      -0.284796       -2.16028       -1.49667        2.64347
C      -0.116418        -2.4995       -2.26598        3.37575
C       -1.03851        2.94765       0.246672        3.13496
C        1.49126       0.342453        2.88507         3.2657
C      -0.224864       -1.28093         2.8456         3.1287
C       -2.14027       0.460899       -1.99826        2.96416
